Version 4.1
SHEET 1 1220 7916
TEXT 0 32 Left 2 !* ==================================================\n* 16 Ring Oscillators (3 inverters each)\n* ==================================================\n \n.param L = 0.18u\n.param AR_base = 0.75   ; base W/L ratio\n \n* W/L for each RO\n.param AR1=AR_base*1   \n.param AR2=AR_base*2   \n.param AR3=AR_base*3   \n.param AR4=AR_base*4\n.param AR5=AR_base*5   \n.param AR6=AR_base*6   \n.param AR7=AR_base*7   \n.param AR8=AR_base*8\n.param AR9=AR_base*9   \n.param AR10=AR_base*10 \n.param AR11=AR_base*11 \n.param AR12=AR_base*12\n.param AR13=AR_base*13 \n.param AR14=AR_base*14 \n.param AR15=AR_base*15 \n.param AR16=AR_base*16\n \n* NMOS and PMOS widths\n.param Wn1 = AR1*L   \n.param Wp1 = 2*Wn1\n.param Wn2 = AR2*L   \n.param Wp2 = 2*Wn2\n.param Wn3 = AR3*L   \n.param Wp3 = 2*Wn3\n.param Wn4 = AR4*L   \n.param Wp4 = 2*Wn4\n.param Wn5 = AR5*L   \n.param Wp5 = 2*Wn5\n.param Wn6 = AR6*L   \n.param Wp6 = 2*Wn6\n.param Wn7 = AR7*L   \n.param Wp7 = 2*Wn7\n.param Wn8 = AR8*L   \n.param Wp8 = 2*Wn8\n.param Wn9 = AR9*L   \n.param Wp9 = 2*Wn9\n.param Wn10= AR10*L  \n.param Wp10= 2*Wn10\n.param Wn11= AR11*L  \n.param Wp11= 2*Wn11\n.param Wn12= AR12*L  \n.param Wp12= 2*Wn12\n.param Wn13= AR13*L  \n.param Wp13= 2*Wn13\n.param Wn14= AR14*L  \n.param Wp14= 2*Wn14\n.param Wn15= AR15*L  \n.param Wp15= 2*Wn15\n.param Wn16= AR16*L  \n.param Wp16= 2*Wn16\n \n.param Vddval = 1\n \n* -------------------------\n* Supply and input pulse\n* -------------------------\nVdd vdd 0 {Vddval}\nVin in 0 PULSE(0 {Vddval} 0 50p 50p 1n 2n)\n \n* ==================================================\n* Ring Oscillators 1 to 16 (3 inverters each)\n* ==================================================\n \n* --------- RO1 ---------\nM1n n1_1 in 0 0 nmos4 W={Wn1} L={L}\nM1p n1_1 in vdd vdd pmos4 W={Wp1} L={L}\nM2n n1_2 n1_1 0 0 nmos4 W={Wn1} L={L}\nM2p n1_2 n1_1 vdd vdd pmos4 W={Wp1} L={L}\nM3n n1_3 n1_2 0 0 nmos4 W={Wn1} L={L}\nM3p n1_3 n1_2 vdd vdd pmos4 W={Wp1} L={L}\nC1 n1_3 0 20f\n \n* --------- RO2 ---------\nM4n n2_1 in 0 0 nmos4 W={Wn2} L={L}\nM4p n2_1 in vdd vdd pmos4 W={Wp2} L={L}\nM5n n2_2 n2_1 0 0 nmos4 W={Wn2} L={L}\nM5p n2_2 n2_1 vdd vdd pmos4 W={Wp2} L={L}\nM6n n2_3 n2_2 0 0 nmos4 W={Wn2} L={L}\nM6p n2_3 n2_2 vdd vdd pmos4 W={Wp2} L={L}\nC2 n2_3 0 20f\n \n* --------- RO3 ---------\nM7n n3_1 in 0 0 nmos4 W={Wn3} L={L}\nM7p n3_1 in vdd vdd pmos4 W={Wp3} L={L}\nM8n n3_2 n3_1 0 0 nmos4 W={Wn3} L={L}\nM8p n3_2 n3_1 vdd vdd pmos4 W={Wp3} L={L}\nM9n n3_3 n3_2 0 0 nmos4 W={Wn3} L={L}\nM9p n3_3 n3_2 vdd vdd pmos4 W={Wp3} L={L}\nC3 n3_3 0 20f\n \n* --------- RO4 ---------\nM10n n4_1 in 0 0 nmos4 W={Wn4} L={L}\nM10p n4_1 in vdd vdd pmos4 W={Wp4} L={L}\nM11n n4_2 n4_1 0 0 nmos4 W={Wn4} L={L}\nM11p n4_2 n4_1 vdd vdd pmos4 W={Wp4} L={L}\nM12n n4_3 n4_2 0 0 nmos4 W={Wn4} L={L}\nM12p n4_3 n4_2 vdd vdd pmos4 W={Wp4} L={L}\nC4 n4_3 0 20f\n \n* --------- RO5 ---------\nM13n n5_1 in 0 0 nmos4 W={Wn5} L={L}\nM13p n5_1 in vdd vdd pmos4 W={Wp5} L={L}\nM14n n5_2 n5_1 0 0 nmos4 W={Wn5} L={L}\nM14p n5_2 n5_1 vdd vdd pmos4 W={Wp5} L={L}\nM15n n5_3 n5_2 0 0 nmos4 W={Wn5} L={L}\nM15p n5_3 n5_2 vdd vdd pmos4 W={Wp5} L={L}\nC5 n5_3 0 20f\n \n* --------- RO6 ---------\nM16n n6_1 in 0 0 nmos4 W={Wn6} L={L}\nM16p n6_1 in vdd vdd pmos4 W={Wp6} L={L}\nM17n n6_2 n6_1 0 0 nmos4 W={Wn6} L={L}\nM17p n6_2 n6_1 vdd vdd pmos4 W={Wp6} L={L}\nM18n n6_3 n6_2 0 0 nmos4 W={Wn6} L={L}\nM18p n6_3 n6_2 vdd vdd pmos4 W={Wp6} L={L}\nC6 n6_3 0 20f\n \n* --------- RO7 ---------\nM19n n7_1 in 0 0 nmos4 W={Wn7} L={L}\nM19p n7_1 in vdd vdd pmos4 W={Wp7} L={L}\nM20n n7_2 n7_1 0 0 nmos4 W={Wn7} L={L}\nM20p n7_2 n7_1 vdd vdd pmos4 W={Wp7} L={L}\nM21n n7_3 n7_2 0 0 nmos4 W={Wn7} L={L}\nM21p n7_3 n7_2 vdd vdd pmos4 W={Wp7} L={L}\nC7 n7_3 0 20f\n \n* --------- RO8 ---------\nM22n n8_1 in 0 0 nmos4 W={Wn8} L={L}\nM22p n8_1 in vdd vdd pmos4 W={Wp8} L={L}\nM23n n8_2 n8_1 0 0 nmos4 W={Wn8} L={L}\nM23p n8_2 n8_1 vdd vdd pmos4 W={Wp8} L={L}\nM24n n8_3 n8_2 0 0 nmos4 W={Wn8} L={L}\nM24p n8_3 n8_2 vdd vdd pmos4 W={Wp8} L={L}\nC8 n8_3 0 20f\n \n* --------- RO9 ---------\nM25n n9_1 in 0 0 nmos4 W={Wn9} L={L}\nM25p n9_1 in vdd vdd pmos4 W={Wp9} L={L}\nM26n n9_2 n9_1 0 0 nmos4 W={Wn9} L={L}\nM26p n9_2 n9_1 vdd vdd pmos4 W={Wp9} L={L}\nM27n n9_3 n9_2 0 0 nmos4 W={Wn9} L={L}\nM27p n9_3 n9_2 vdd vdd pmos4 W={Wp9} L={L}\nC9 n9_3 0 20f\n \n* --------- RO10 ---------\nM28n n10_1 in 0 0 nmos4 W={Wn10} L={L}\nM28p n10_1 in vdd vdd pmos4 W={Wp10} L={L}\nM29n n10_2 n10_1 0 0 nmos4 W={Wn10} L={L}\nM29p n10_2 n10_1 vdd vdd pmos4 W={Wp10} L={L}\nM30n n10_3 n10_2 0 0 nmos4 W={Wn10} L={L}\nM30p n10_3 n10_2 vdd vdd pmos4 W={Wp10} L={L}\nC10 n10_3 0 20f\n \n* --------- RO11 ---------\nM31n n11_1 in 0 0 nmos4 W={Wn11} L={L}\nM31p n11_1 in vdd vdd pmos4 W={Wp11} L={L}\nM32n n11_2 n11_1 0 0 nmos4 W={Wn11} L={L}\nM32p n11_2 n11_1 vdd vdd pmos4 W={Wp11} L={L}\nM33n n11_3 n11_2 0 0 nmos4 W={Wn11} L={L}\nM33p n11_3 n11_2 vdd vdd pmos4 W={Wp11} L={L}\nC11 n11_3 0 20f\n \n* --------- RO12 ---------\nM34n n12_1 in 0 0 nmos4 W={Wn12} L={L}\nM34p n12_1 in vdd vdd pmos4 W={Wp12} L={L}\nM35n n12_2 n12_1 0 0 nmos4 W={Wn12} L={L}\nM35p n12_2 n12_1 vdd vdd pmos4 W={Wp12} L={L}\nM36n n12_3 n12_2 0 0 nmos4 W={Wn12} L={L}\nM36p n12_3 n12_2 vdd vdd pmos4 W={Wp12} L={L}\nC12 n12_3 0 20f\n \n* --------- RO13 ---------\nM37n n13_1 in 0 0 nmos4 W={Wn13} L={L}\nM37p n13_1 in vdd vdd pmos4 W={Wp13} L={L}\nM38n n13_2 n13_1 0 0 nmos4 W={Wn13} L={L}\nM38p n13_2 n13_1 vdd vdd pmos4 W={Wp13} L={L}\nM39n n13_3 n13_2 0 0 nmos4 W={Wn13} L={L}\nM39p n13_3 n13_2 vdd vdd pmos4 W={Wp13} L={L}\nC13 n13_3 0 20f\n \n* --------- RO14 ---------\nM40n n14_1 in 0 0 nmos4 W={Wn14} L={L}\nM40p n14_1 in vdd vdd pmos4 W={Wp14} L={L}\nM41n n14_2 n14_1 0 0 nmos4 W={Wn14} L={L}\nM41p n14_2 n14_1 vdd vdd pmos4 W={Wp14} L={L}\nM42n n14_3 n14_2 0 0 nmos4 W={Wn14} L={L}\nM42p n14_3 n14_2 vdd vdd pmos4 W={Wp14} L={L}\nC14 n14_3 0 20f\n \n* --------- RO15 ---------\nM43n n15_1 in 0 0 nmos4 W={Wn15} L={L}\nM43p n15_1 in vdd vdd pmos4 W={Wp15} L={L}\nM44n n15_2 n15_1 0 0 nmos4 W={Wn15} L={L}\nM44p n15_2 n15_1 vdd vdd pmos4 W={Wp15} L={L}\nM45n n15_3 n15_2 0 0 nmos4 W={Wn15} L={L}\nM45p n15_3 n15_2 vdd vdd pmos4 W={Wp15} L={L}\nC15 n15_3 0 20f\n \n* --------- RO16 ---------\nM46n n16_1 in 0 0 nmos4 W={Wn16} L={L}\nM46p n16_1 in vdd vdd pmos4 W={Wp16} L={L}\nM47n n16_2 n16_1 0 0 nmos4 W={Wn16} L={L}\nM47p n16_2 n16_1 vdd vdd pmos4 W={Wp16} L={L}\nM48n n16_3 n16_2 0 0 nmos4 W={Wn16} L={L}\nM48p n16_3 n16_2 vdd vdd pmos4 W={Wp16} L={L}\nC16 n16_3 0 20f\n \n* ==================================================\n* MOS models\n* ==================================================\n.model nmos4 nmos level=1\n.model pmos4 pmos level=1\n \n* ==================================================\n* Frequency measurements\n* ==================================================\n.measure tran tper1 TRIG V(n1_3) VAL={Vddval/2} RISE=1 TARG V(n1_3) VAL={Vddval/2} RISE=2\n.measure tran fosc1 param=1/tper1\n.measure tran tper2 TRIG V(n2_3) VAL={Vddval/2} RISE=1 TARG V(n2_3) VAL={Vddval/2} RISE=2\n.measure tran fosc2 param=1/tper2\n.measure tran tper3 TRIG V(n3_3) VAL={Vddval/2} RISE=1 TARG V(n3_3) VAL={Vddval/2} RISE=2\n.measure tran fosc3 param=1/tper3\n.measure tran tper4 TRIG V(n4_3) VAL={Vddval/2} RISE=1 TARG V(n4_3) VAL={Vddval/2} RISE=2\n.measure tran fosc4 param=1/tper4\n.measure tran tper5 TRIG V(n5_3) VAL={Vddval/2} RISE=1 TARG V(n5_3) VAL={Vddval/2} RISE=2\n.measure tran fosc5 param=1/tper5\n.measure tran tper6 TRIG V(n6_3) VAL={Vddval/2} RISE=1 TARG V(n6_3) VAL={Vddval/2} RISE=2\n.measure tran fosc6 param=1/tper6\n.measure tran tper7 TRIG V(n7_3) VAL={Vddval/2} RISE=1 TARG V(n7_3) VAL={Vddval/2} RISE=2\n.measure tran fosc7 param=1/tper7\n.measure tran tper8 TRIG V(n8_3) VAL={Vddval/2} RISE=1 TARG V(n8_3) VAL={Vddval/2} RISE=2\n.measure tran fosc8 param=1/tper8\n.measure tran tper9 TRIG V(n9_3) VAL={Vddval/2} RISE=1 TARG V(n9_3) VAL={Vddval/2} RISE=2\n.measure tran fosc9 param=1/tper9\n.measure tran tper10 TRIG V(n10_3) VAL={Vddval/2} RISE=1 TARG V(n10_3) VAL={Vddval/2} RISE=2\n.measure tran fosc10 param=1/tper10\n.measure tran tper11 TRIG V(n11_3) VAL={Vddval/2} RISE=1 TARG V(n11_3) VAL={Vddval/2} RISE=2\n.measure tran fosc11 param=1/tper11\n.measure tran tper12 TRIG V(n12_3) VAL={Vddval/2} RISE=1 TARG V(n12_3) VAL={Vddval/2} RISE=2\n.measure tran fosc12 param=1/tper12\n.measure tran tper13 TRIG V(n13_3) VAL={Vddval/2} RISE=1 TARG V(n13_3) VAL={Vddval/2} RISE=2\n.measure tran fosc13 param=1/tper13\n.measure tran tper14 TRIG V(n14_3) VAL={Vddval/2} RISE=1 TARG V(n14_3) VAL={Vddval/2} RISE=2\n.measure tran fosc14 param=1/tper14\n.measure tran tper15 TRIG V(n15_3) VAL={Vddval/2} RISE=1 TARG V(n15_3) VAL={Vddval/2} RISE=2\n.measure tran fosc15 param=1/tper15\n.measure tran tper16 TRIG V(n16_3) VAL={Vddval/2} RISE=1 TARG V(n16_3) VAL={Vddval/2} RISE=2\n.measure tran fosc16 param=1/tper16\n \n* ==================================================\n* Initial conditions to start oscillation\n* ==================================================\n.ic V(n1_1)=0 V(n1_2)=Vddval V(n1_3)=0\n.ic V(n2_1)=0 V(n2_2)=Vddval V(n2_3)=0\n.ic V(n3_1)=0 V(n3_2)=Vddval V(n3_3)=0\n.ic V(n4_1)=0 V(n4_2)=Vddval V(n4_3)=0\n.ic V(n5_1)=0 V(n5_2)=Vddval V(n5_3)=0\n.ic V(n6_1)=0 V(n6_2)=Vddval V(n6_3)=0\n.ic V(n7_1)=0 V(n7_2)=Vddval V(n7_3)=0\n.ic V(n8_1)=0 V(n8_2)=Vddval V(n8_3)=0\n.ic V(n9_1)=0 V(n9_2)=Vddval V(n9_3)=0\n.ic V(n10_1)=0 V(n10_2)=Vddval V(n10_3)=0\n.ic V(n11_1)=0 V(n11_2)=Vddval V(n11_3)=0\n.ic V(n12_1)=0 V(n12_2)=Vddval V(n12_3)=0\n.ic V(n13_1)=0 V(n13_2)=Vddval V(n13_3)=0\n.ic V(n14_1)=0 V(n14_2)=Vddval V(n14_3)=0\n.ic V(n15_1)=0 V(n15_2)=Vddval V(n15_3)=0\n.ic V(n16_1)=0 V(n16_2)=Vddval V(n16_3)=0\n \n* ==================================================\n* Transient Analysis\n* ==================================================\n.tran 0 200n\n.end
