Version 4.1
SHEET 1 1164 15452
TEXT -56 -48 Left 2 !* ==================================================\n* 32 Ring Oscillators (3 inverters each)\n* ==================================================\n \n.param L = 0.18u\n.param AR_base = 0.5   ; base W/L ratio\n \n* W/L ratios for each RO\n.param AR1 = AR_base*1\n.param AR2 = AR_base*2\n.param AR3 = AR_base*3\n.param AR4 = AR_base*4\n.param AR5 = AR_base*5\n.param AR6 = AR_base*6\n.param AR7 = AR_base*7\n.param AR8 = AR_base*8\n.param AR9 = AR_base*9\n.param AR10 = AR_base*10\n.param AR11 = AR_base*11\n.param AR12 = AR_base*12\n.param AR13 = AR_base*13\n.param AR14 = AR_base*14\n.param AR15 = AR_base*15\n.param AR16 = AR_base*16\n.param AR17 = AR_base*17\n.param AR18 = AR_base*18\n.param AR19 = AR_base*19\n.param AR20 = AR_base*20\n.param AR21 = AR_base*21\n.param AR22 = AR_base*22\n.param AR23 = AR_base*23\n.param AR24 = AR_base*24\n.param AR25 = AR_base*25\n.param AR26 = AR_base*26\n.param AR27 = AR_base*27\n.param AR28 = AR_base*28\n.param AR29 = AR_base*29\n.param AR30 = AR_base*30\n.param AR31 = AR_base*31\n.param AR32 = AR_base*32\n \n* NMOS and PMOS widths for each RO\n.param Wn1 = AR1*L\n.param Wp1 = 2*Wn1\n.param Wn2 = AR2*L\n.param Wp2 = 2*Wn2\n.param Wn3 = AR3*L\n.param Wp3 = 2*Wn3\n.param Wn4 = AR4*L\n.param Wp4 = 2*Wn4\n.param Wn5 = AR5*L\n.param Wp5 = 2*Wn5\n.param Wn6 = AR6*L\n.param Wp6 = 2*Wn6\n.param Wn7 = AR7*L\n.param Wp7 = 2*Wn7\n.param Wn8 = AR8*L\n.param Wp8 = 2*Wn8\n.param Wn9 = AR9*L\n.param Wp9 = 2*Wn9\n.param Wn10 = AR10*L\n.param Wp10 = 2*Wn10\n.param Wn11 = AR11*L\n.param Wp11 = 2*Wn11\n.param Wn12 = AR12*L\n.param Wp12 = 2*Wn12\n.param Wn13 = AR13*L\n.param Wp13 = 2*Wn13\n.param Wn14 = AR14*L\n.param Wp14 = 2*Wn14\n.param Wn15 = AR15*L\n.param Wp15 = 2*Wn15\n.param Wn16 = AR16*L\n.param Wp16 = 2*Wn16\n.param Wn17 = AR17*L\n.param Wp17 = 2*Wn17\n.param Wn18 = AR18*L\n.param Wp18 = 2*Wn18\n.param Wn19 = AR19*L\n.param Wp19 = 2*Wn19\n.param Wn20 = AR20*L\n.param Wp20 = 2*Wn20\n.param Wn21 = AR21*L\n.param Wp21 = 2*Wn21\n.param Wn22 = AR22*L\n.param Wp22 = 2*Wn22\n.param Wn23 = AR23*L\n.param Wp23 = 2*Wn23\n.param Wn24 = AR24*L\n.param Wp24 = 2*Wn24\n.param Wn25 = AR25*L\n.param Wp25 = 2*Wn25\n.param Wn26 = AR26*L\n.param Wp26 = 2*Wn26\n.param Wn27 = AR27*L\n.param Wp27 = 2*Wn27\n.param Wn28 = AR28*L\n.param Wp28 = 2*Wn28\n.param Wn29 = AR29*L\n.param Wp29 = 2*Wn29\n.param Wn30 = AR30*L\n.param Wp30 = 2*Wn30\n.param Wn31 = AR31*L\n.param Wp31 = 2*Wn31\n.param Wn32 = AR32*L\n.param Wp32 = 2*Wn32\n \n.param Vddval = 1\n \n* -------------------------\n* Supply and input pulse\n* -------------------------\nVdd vdd 0 {Vddval}\nVin in 0 PULSE(0 {Vddval} 0 50p 50p 1n 2n)\n \n* ==================================================\n* MOS models\n* ==================================================\n.model nmos4 nmos level=1\n.model pmos4 pmos level=1\n \n* ==================================================\n* Ring Oscillators (3 inverters each)\n* ==================================================\n \n* ---------- RO1 ----------\nM1n n1_1 in 0 0 nmos4 W={Wn1} L={L}\nM1p n1_1 in vdd vdd pmos4 W={Wp1} L={L}\nM2n n1_2 n1_1 0 0 nmos4 W={Wn1} L={L}\nM2p n1_2 n1_1 vdd vdd pmos4 W={Wp1} L={L}\nM3n n1_3 n1_2 0 0 nmos4 W={Wn1} L={L}\nM3p n1_3 n1_2 vdd vdd pmos4 W={Wp1} L={L}\nC1 n1_3 0 20f\n \n* ---------- RO2 ----------\nM4n n2_1 in 0 0 nmos4 W={Wn2} L={L}\nM4p n2_1 in vdd vdd pmos4 W={Wp2} L={L}\nM5n n2_2 n2_1 0 0 nmos4 W={Wn2} L={L}\nM5p n2_2 n2_1 vdd vdd pmos4 W={Wp2} L={L}\nM6n n2_3 n2_2 0 0 nmos4 W={Wn2} L={L}\nM6p n2_3 n2_2 vdd vdd pmos4 W={Wp2} L={L}\nC2 n2_3 0 20f\n \n* ---------- RO3 ----------\nM7n n3_1 in 0 0 nmos4 W={Wn3} L={L}\nM7p n3_1 in vdd vdd pmos4 W={Wp3} L={L}\nM8n n3_2 n3_1 0 0 nmos4 W={Wn3} L={L}\nM8p n3_2 n3_1 vdd vdd pmos4 W={Wp3} L={L}\nM9n n3_3 n3_2 0 0 nmos4 W={Wn3} L={L}\nM9p n3_3 n3_2 vdd vdd pmos4 W={Wp3} L={L}\nC3 n3_3 0 20f\n \n* ---------- RO4 ----------\nM10n n4_1 in 0 0 nmos4 W={Wn4} L={L}\nM10p n4_1 in vdd vdd pmos4 W={Wp4} L={L}\nM11n n4_2 n4_1 0 0 nmos4 W={Wn4} L={L}\nM11p n4_2 n4_1 vdd vdd pmos4 W={Wp4} L={L}\nM12n n4_3 n4_2 0 0 nmos4 W={Wn4} L={L}\nM12p n4_3 n4_2 vdd vdd pmos4 W={Wp4} L={L}\nC4 n4_3 0 20f\n \n* ---------- RO5 ----------\nM13n n5_1 in 0 0 nmos4 W={Wn5} L={L}\nM13p n5_1 in vdd vdd pmos4 W={Wp5} L={L}\nM14n n5_2 n5_1 0 0 nmos4 W={Wn5} L={L}\nM14p n5_2 n5_1 vdd vdd pmos4 W={Wp5} L={L}\nM15n n5_3 n5_2 0 0 nmos4 W={Wn5} L={L}\nM15p n5_3 n5_2 vdd vdd pmos4 W={Wp5} L={L}\nC5 n5_3 0 20f\n \n* ---------- RO6 ----------\nM16n n6_1 in 0 0 nmos4 W={Wn6} L={L}\nM16p n6_1 in vdd vdd pmos4 W={Wp6} L={L}\nM17n n6_2 n6_1 0 0 nmos4 W={Wn6} L={L}\nM17p n6_2 n6_1 vdd vdd pmos4 W={Wp6} L={L}\nM18n n6_3 n6_2 0 0 nmos4 W={Wn6} L={L}\nM18p n6_3 n6_2 vdd vdd pmos4 W={Wp6} L={L}\nC6 n6_3 0 20f\n \n* ---------- RO7 ----------\nM19n n7_1 in 0 0 nmos4 W={Wn7} L={L}\nM19p n7_1 in vdd vdd pmos4 W={Wp7} L={L}\nM20n n7_2 n7_1 0 0 nmos4 W={Wn7} L={L}\nM20p n7_2 n7_1 vdd vdd pmos4 W={Wp7} L={L}\nM21n n7_3 n7_2 0 0 nmos4 W={Wn7} L={L}\nM21p n7_3 n7_2 vdd vdd pmos4 W={Wp7} L={L}\nC7 n7_3 0 20f\n \n* ---------- RO8 ----------\nM22n n8_1 in 0 0 nmos4 W={Wn8} L={L}\nM22p n8_1 in vdd vdd pmos4 W={Wp8} L={L}\nM23n n8_2 n8_1 0 0 nmos4 W={Wn8} L={L}\nM23p n8_2 n8_1 vdd vdd pmos4 W={Wp8} L={L}\nM24n n8_3 n8_2 0 0 nmos4 W={Wn8} L={L}\nM24p n8_3 n8_2 vdd vdd pmos4 W={Wp8} L={L}\nC8 n8_3 0 20f\n \n* ---------- RO9 ----------\nM25n n9_1 in 0 0 nmos4 W={Wn9} L={L}\nM25p n9_1 in vdd vdd pmos4 W={Wp9} L={L}\nM26n n9_2 n9_1 0 0 nmos4 W={Wn9} L={L}\nM26p n9_2 n9_1 vdd vdd pmos4 W={Wp9} L={L}\nM27n n9_3 n9_2 0 0 nmos4 W={Wn9} L={L}\nM27p n9_3 n9_2 vdd vdd pmos4 W={Wp9} L={L}\nC9 n9_3 0 20f\n \n* ---------- RO10 ----------\nM28n n10_1 in 0 0 nmos4 W={Wn10} L={L}\nM28p n10_1 in vdd vdd pmos4 W={Wp10} L={L}\nM29n n10_2 n10_1 0 0 nmos4 W={Wn10} L={L}\nM29p n10_2 n10_1 vdd vdd pmos4 W={Wp10} L={L}\nM30n n10_3 n10_2 0 0 nmos4 W={Wn10} L={L}\nM30p n10_3 n10_2 vdd vdd pmos4 W={Wp10} L={L}\nC10 n10_3 0 20f\n \n* ---------- RO11 ----------\nM31n n11_1 in 0 0 nmos4 W={Wn11} L={L}\nM31p n11_1 in vdd vdd pmos4 W={Wp11} L={L}\nM32n n11_2 n11_1 0 0 nmos4 W={Wn11} L={L}\nM32p n11_2 n11_1 vdd vdd pmos4 W={Wp11} L={L}\nM33n n11_3 n11_2 0 0 nmos4 W={Wn11} L={L}\nM33p n11_3 n11_2 vdd vdd pmos4 W={Wp11} L={L}\nC11 n11_3 0 20f\n \n* ---------- RO12 ----------\nM34n n12_1 in 0 0 nmos4 W={Wn12} L={L}\nM34p n12_1 in vdd vdd pmos4 W={Wp12} L={L}\nM35n n12_2 n12_1 0 0 nmos4 W={Wn12} L={L}\nM35p n12_2 n12_1 vdd vdd pmos4 W={Wp12} L={L}\nM36n n12_3 n12_2 0 0 nmos4 W={Wn12} L={L}\nM36p n12_3 n12_2 vdd vdd pmos4 W={Wp12} L={L}\nC12 n12_3 0 20f\n \n* ---------- RO13 ----------\nM37n n13_1 in 0 0 nmos4 W={Wn13} L={L}\nM37p n13_1 in vdd vdd pmos4 W={Wp13} L={L}\nM38n n13_2 n13_1 0 0 nmos4 W={Wn13} L={L}\nM38p n13_2 n13_1 vdd vdd pmos4 W={Wp13} L={L}\nM39n n13_3 n13_2 0 0 nmos4 W={Wn13} L={L}\nM39p n13_3 n13_2 vdd vdd pmos4 W={Wp13} L={L}\nC13 n13_3 0 20f\n \n* ---------- RO14 ----------\nM40n n14_1 in 0 0 nmos4 W={Wn14} L={L}\nM40p n14_1 in vdd vdd pmos4 W={Wp14} L={L}\nM41n n14_2 n14_1 0 0 nmos4 W={Wn14} L={L}\nM41p n14_2 n14_1 vdd vdd pmos4 W={Wp14} L={L}\nM42n n14_3 n14_2 0 0 nmos4 W={Wn14} L={L}\nM42p n14_3 n14_2 vdd vdd pmos4 W={Wp14} L={L}\nC14 n14_3 0 20f\n \n* ---------- RO15 ----------\nM43n n15_1 in 0 0 nmos4 W={Wn15} L={L}\nM43p n15_1 in vdd vdd pmos4 W={Wp15} L={L}\nM44n n15_2 n15_1 0 0 nmos4 W={Wn15} L={L}\nM44p n15_2 n15_1 vdd vdd pmos4 W={Wp15} L={L}\nM45n n15_3 n15_2 0 0 nmos4 W={Wn15} L={L}\nM45p n15_3 n15_2 vdd vdd pmos4 W={Wp15} L={L}\nC15 n15_3 0 20f\n \n* ---------- RO16 ----------\nM46n n16_1 in 0 0 nmos4 W={Wn16} L={L}\nM46p n16_1 in vdd vdd pmos4 W={Wp16} L={L}\nM47n n16_2 n16_1 0 0 nmos4 W={Wn16} L={L}\nM47p n16_2 n16_1 vdd vdd pmos4 W={Wp16} L={L}\nM48n n16_3 n16_2 0 0 nmos4 W={Wn16} L={L}\nM48p n16_3 n16_2 vdd vdd pmos4 W={Wp16} L={L}\nC16 n16_3 0 20f\n \n* ---------- RO17 ----------\nM49n n17_1 in 0 0 nmos4 W={Wn17} L={L}\nM49p n17_1 in vdd vdd pmos4 W={Wp17} L={L}\nM50n n17_2 n17_1 0 0 nmos4 W={Wn17} L={L}\nM50p n17_2 n17_1 vdd vdd pmos4 W={Wp17} L={L}\nM51n n17_3 n17_2 0 0 nmos4 W={Wn17} L={L}\nM51p n17_3 n17_2 vdd vdd pmos4 W={Wp17} L={L}\nC17 n17_3 0 20f\n \n* ---------- RO18 ----------\nM52n n18_1 in 0 0 nmos4 W={Wn18} L={L}\nM52p n18_1 in vdd vdd pmos4 W={Wp18} L={L}\nM53n n18_2 n18_1 0 0 nmos4 W={Wn18} L={L}\nM53p n18_2 n18_1 vdd vdd pmos4 W={Wp18} L={L}\nM54n n18_3 n18_2 0 0 nmos4 W={Wn18} L={L}\nM54p n18_3 n18_2 vdd vdd pmos4 W={Wp18} L={L}\nC18 n18_3 0 20f\n \n* ---------- RO19 ----------\nM55n n19_1 in 0 0 nmos4 W={Wn19} L={L}\nM55p n19_1 in vdd vdd pmos4 W={Wp19} L={L}\nM56n n19_2 n19_1 0 0 nmos4 W={Wn19} L={L}\nM56p n19_2 n19_1 vdd vdd pmos4 W={Wp19} L={L}\nM57n n19_3 n19_2 0 0 nmos4 W={Wn19} L={L}\nM57p n19_3 n19_2 vdd vdd pmos4 W={Wp19} L={L}\nC19 n19_3 0 20f\n \n* ---------- RO20 ----------\nM58n n20_1 in 0 0 nmos4 W={Wn20} L={L}\nM58p n20_1 in vdd vdd pmos4 W={Wp20} L={L}\nM59n n20_2 n20_1 0 0 nmos4 W={Wn20} L={L}\nM59p n20_2 n20_1 vdd vdd pmos4 W={Wp20} L={L}\nM60n n20_3 n20_2 0 0 nmos4 W={Wn20} L={L}\nM60p n20_3 n20_2 vdd vdd pmos4 W={Wp20} L={L}\nC20 n20_3 0 20f\n \n* ---------- RO21 ----------\nM61n n21_1 in 0 0 nmos4 W={Wn21} L={L}\nM61p n21_1 in vdd vdd pmos4 W={Wp21} L={L}\nM62n n21_2 n21_1 0 0 nmos4 W={Wn21} L={L}\nM62p n21_2 n21_1 vdd vdd pmos4 W={Wp21} L={L}\nM63n n21_3 n21_2 0 0 nmos4 W={Wn21} L={L}\nM63p n21_3 n21_2 vdd vdd pmos4 W={Wp21} L={L}\nC21 n21_3 0 20f\n \n* ---------- RO22 ----------\nM64n n22_1 in 0 0 nmos4 W={Wn22} L={L}\nM64p n22_1 in vdd vdd pmos4 W={Wp22} L={L}\nM65n n22_2 n22_1 0 0 nmos4 W={Wn22} L={L}\nM65p n22_2 n22_1 vdd vdd pmos4 W={Wp22} L={L}\nM66n n22_3 n22_2 0 0 nmos4 W={Wn22} L={L}\nM66p n22_3 n22_2 vdd vdd pmos4 W={Wp22} L={L}\nC22 n22_3 0 20f\n \n* ---------- RO23 ----------\nM67n n23_1 in 0 0 nmos4 W={Wn23} L={L}\nM67p n23_1 in vdd vdd pmos4 W={Wp23} L={L}\nM68n n23_2 n23_1 0 0 nmos4 W={Wn23} L={L}\nM68p n23_2 n23_1 vdd vdd pmos4 W={Wp23} L={L}\nM69n n23_3 n23_2 0 0 nmos4 W={Wn23} L={L}\nM69p n23_3 n23_2 vdd vdd pmos4 W={Wp23} L={L}\nC23 n23_3 0 20f\n \n* ---------- RO24 ----------\nM70n n24_1 in 0 0 nmos4 W={Wn24} L={L}\nM70p n24_1 in vdd vdd pmos4 W={Wp24} L={L}\nM71n n24_2 n24_1 0 0 nmos4 W={Wn24} L={L}\nM71p n24_2 n24_1 vdd vdd pmos4 W={Wp24} L={L}\nM72n n24_3 n24_2 0 0 nmos4 W={Wn24} L={L}\nM72p n24_3 n24_2 vdd vdd pmos4 W={Wp24} L={L}\nC24 n24_3 0 20f\n \n* ---------- RO25 ----------\nM73n n25_1 in 0 0 nmos4 W={Wn25} L={L}\nM73p n25_1 in vdd vdd pmos4 W={Wp25} L={L}\nM74n n25_2 n25_1 0 0 nmos4 W={Wn25} L={L}\nM74p n25_2 n25_1 vdd vdd pmos4 W={Wp25} L={L}\nM75n n25_3 n25_2 0 0 nmos4 W={Wn25} L={L}\nM75p n25_3 n25_2 vdd vdd pmos4 W={Wp25} L={L}\nC25 n25_3 0 20f\n \n* ---------- RO26 ----------\nM76n n26_1 in 0 0 nmos4 W={Wn26} L={L}\nM76p n26_1 in vdd vdd pmos4 W={Wp26} L={L}\nM77n n26_2 n26_1 0 0 nmos4 W={Wn26} L={L}\nM77p n26_2 n26_1 vdd vdd pmos4 W={Wp26} L={L}\nM78n n26_3 n26_2 0 0 nmos4 W={Wn26} L={L}\nM78p n26_3 n26_2 vdd vdd pmos4 W={Wp26} L={L}\nC26 n26_3 0 20f\n \n* ---------- RO27 ----------\nM79n n27_1 in 0 0 nmos4 W={Wn27} L={L}\nM79p n27_1 in vdd vdd pmos4 W={Wp27} L={L}\nM80n n27_2 n27_1 0 0 nmos4 W={Wn27} L={L}\nM80p n27_2 n27_1 vdd vdd pmos4 W={Wp27} L={L}\nM81n n27_3 n27_2 0 0 nmos4 W={Wn27} L={L}\nM81p n27_3 n27_2 vdd vdd pmos4 W={Wp27} L={L}\nC27 n27_3 0 20f\n \n* ---------- RO28 ----------\nM82n n28_1 in 0 0 nmos4 W={Wn28} L={L}\nM82p n28_1 in vdd vdd pmos4 W={Wp28} L={L}\nM83n n28_2 n28_1 0 0 nmos4 W={Wn28} L={L}\nM83p n28_2 n28_1 vdd vdd pmos4 W={Wp28} L={L}\nM84n n28_3 n28_2 0 0 nmos4 W={Wn28} L={L}\nM84p n28_3 n28_2 vdd vdd pmos4 W={Wp28} L={L}\nC28 n28_3 0 20f\n \n* ---------- RO29 ----------\nM85n n29_1 in 0 0 nmos4 W={Wn29} L={L}\nM85p n29_1 in vdd vdd pmos4 W={Wp29} L={L}\nM86n n29_2 n29_1 0 0 nmos4 W={Wn29} L={L}\nM86p n29_2 n29_1 vdd vdd pmos4 W={Wp29} L={L}\nM87n n29_3 n29_2 0 0 nmos4 W={Wn29} L={L}\nM87p n29_3 n29_2 vdd vdd pmos4 W={Wp29} L={L}\nC29 n29_3 0 20f\n \n* ---------- RO30 ----------\nM88n n30_1 in 0 0 nmos4 W={Wn30} L={L}\nM88p n30_1 in vdd vdd pmos4 W={Wp30} L={L}\nM89n n30_2 n30_1 0 0 nmos4 W={Wn30} L={L}\nM89p n30_2 n30_1 vdd vdd pmos4 W={Wp30} L={L}\nM90n n30_3 n30_2 0 0 nmos4 W={Wn30} L={L}\nM90p n30_3 n30_2 vdd vdd pmos4 W={Wp30} L={L}\nC30 n30_3 0 20f\n \n* ---------- RO31 ----------\nM91n n31_1 in 0 0 nmos4 W={Wn31} L={L}\nM91p n31_1 in vdd vdd pmos4 W={Wp31} L={L}\nM92n n31_2 n31_1 0 0 nmos4 W={Wn31} L={L}\nM92p n31_2 n31_1 vdd vdd pmos4 W={Wp31} L={L}\nM93n n31_3 n31_2 0 0 nmos4 W={Wn31} L={L}\nM93p n31_3 n31_2 vdd vdd pmos4 W={Wp31} L={L}\nC31 n31_3 0 20f\n \n* ---------- RO32 ----------\nM94n n32_1 in 0 0 nmos4 W={Wn32} L={L}\nM94p n32_1 in vdd vdd pmos4 W={Wp32} L={L}\nM95n n32_2 n32_1 0 0 nmos4 W={Wn32} L={L}\nM95p n32_2 n32_1 vdd vdd pmos4 W={Wp32} L={L}\nM96n n32_3 n32_2 0 0 nmos4 W={Wn32} L={L}\nM96p n32_3 n32_2 vdd vdd pmos4 W={Wp32} L={L}\nC32 n32_3 0 20f\n \n* -----------------------------\n* Period / Frequency Measurements for 32 ROs\n* -----------------------------\n \n.measure tran tper1  TRIG V(n1_3)  VAL={Vddval/2} RISE=1 TARG V(n1_3)  VAL={Vddval/2} RISE=2\n.measure tran fosc1  param=1/tper1\n \n.measure tran tper2  TRIG V(n2_3)  VAL={Vddval/2} RISE=1 TARG V(n2_3)  VAL={Vddval/2} RISE=2\n.measure tran fosc2  param=1/tper2\n \n.measure tran tper3  TRIG V(n3_3)  VAL={Vddval/2} RISE=1 TARG V(n3_3)  VAL={Vddval/2} RISE=2\n.measure tran fosc3  param=1/tper3\n \n.measure tran tper4  TRIG V(n4_3)  VAL={Vddval/2} RISE=1 TARG V(n4_3)  VAL={Vddval/2} RISE=2\n.measure tran fosc4  param=1/tper4\n \n.measure tran tper5  TRIG V(n5_3)  VAL={Vddval/2} RISE=1 TARG V(n5_3)  VAL={Vddval/2} RISE=2\n.measure tran fosc5  param=1/tper5\n \n.measure tran tper6  TRIG V(n6_3)  VAL={Vddval/2} RISE=1 TARG V(n6_3)  VAL={Vddval/2} RISE=2\n.measure tran fosc6  param=1/tper6\n \n.measure tran tper7  TRIG V(n7_3)  VAL={Vddval/2} RISE=1 TARG V(n7_3)  VAL={Vddval/2} RISE=2\n.measure tran fosc7  param=1/tper7\n \n.measure tran tper8  TRIG V(n8_3)  VAL={Vddval/2} RISE=1 TARG V(n8_3)  VAL={Vddval/2} RISE=2\n.measure tran fosc8  param=1/tper8\n \n.measure tran tper9  TRIG V(n9_3)  VAL={Vddval/2} RISE=1 TARG V(n9_3)  VAL={Vddval/2} RISE=2\n.measure tran fosc9  param=1/tper9\n \n.measure tran tper10 TRIG V(n10_3) VAL={Vddval/2} RISE=1 TARG V(n10_3) VAL={Vddval/2} RISE=2\n.measure tran fosc10 param=1/tper10\n \n.measure tran tper11 TRIG V(n11_3) VAL={Vddval/2} RISE=1 TARG V(n11_3) VAL={Vddval/2} RISE=2\n.measure tran fosc11 param=1/tper11\n \n.measure tran tper12 TRIG V(n12_3) VAL={Vddval/2} RISE=1 TARG V(n12_3) VAL={Vddval/2} RISE=2\n.measure tran fosc12 param=1/tper12\n \n.measure tran tper13 TRIG V(n13_3) VAL={Vddval/2} RISE=1 TARG V(n13_3) VAL={Vddval/2} RISE=2\n.measure tran fosc13 param=1/tper13\n \n.measure tran tper14 TRIG V(n14_3) VAL={Vddval/2} RISE=1 TARG V(n14_3) VAL={Vddval/2} RISE=2\n.measure tran fosc14 param=1/tper14\n \n.measure tran tper15 TRIG V(n15_3) VAL={Vddval/2} RISE=1 TARG V(n15_3) VAL={Vddval/2} RISE=2\n.measure tran fosc15 param=1/tper15\n \n.measure tran tper16 TRIG V(n16_3) VAL={Vddval/2} RISE=1 TARG V(n16_3) VAL={Vddval/2} RISE=2\n.measure tran fosc16 param=1/tper16\n \n.measure tran tper17 TRIG V(n17_3) VAL={Vddval/2} RISE=1 TARG V(n17_3) VAL={Vddval/2} RISE=2\n.measure tran fosc17 param=1/tper17\n \n.measure tran tper18 TRIG V(n18_3) VAL={Vddval/2} RISE=1 TARG V(n18_3) VAL={Vddval/2} RISE=2\n.measure tran fosc18 param=1/tper18\n \n.measure tran tper19 TRIG V(n19_3) VAL={Vddval/2} RISE=1 TARG V(n19_3) VAL={Vddval/2} RISE=2\n.measure tran fosc19 param=1/tper19\n \n.measure tran tper20 TRIG V(n20_3) VAL={Vddval/2} RISE=1 TARG V(n20_3) VAL={Vddval/2} RISE=2\n.measure tran fosc20 param=1/tper20\n \n.measure tran tper21 TRIG V(n21_3) VAL={Vddval/2} RISE=1 TARG V(n21_3) VAL={Vddval/2} RISE=2\n.measure tran fosc21 param=1/tper21\n \n.measure tran tper22 TRIG V(n22_3) VAL={Vddval/2} RISE=1 TARG V(n22_3) VAL={Vddval/2} RISE=2\n.measure tran fosc22 param=1/tper22\n \n.measure tran tper23 TRIG V(n23_3) VAL={Vddval/2} RISE=1 TARG V(n23_3) VAL={Vddval/2} RISE=2\n.measure tran fosc23 param=1/tper23\n \n.measure tran tper24 TRIG V(n24_3) VAL={Vddval/2} RISE=1 TARG V(n24_3) VAL={Vddval/2} RISE=2\n.measure tran fosc24 param=1/tper24\n \n.measure tran tper25 TRIG V(n25_3) VAL={Vddval/2} RISE=1 TARG V(n25_3) VAL={Vddval/2} RISE=2\n.measure tran fosc25 param=1/tper25\n \n.measure tran tper26 TRIG V(n26_3) VAL={Vddval/2} RISE=1 TARG V(n26_3) VAL={Vddval/2} RISE=2\n.measure tran fosc26 param=1/tper26\n \n.measure tran tper27 TRIG V(n27_3) VAL={Vddval/2} RISE=1 TARG V(n27_3) VAL={Vddval/2} RISE=2\n.measure tran fosc27 param=1/tper27\n \n.measure tran tper28 TRIG V(n28_3) VAL={Vddval/2} RISE=1 TARG V(n28_3) VAL={Vddval/2} RISE=2\n.measure tran fosc28 param=1/tper28\n \n.measure tran tper29 TRIG V(n29_3) VAL={Vddval/2} RISE=1 TARG V(n29_3) VAL={Vddval/2} RISE=2\n.measure tran fosc29 param=1/tper29\n \n.measure tran tper30 TRIG V(n30_3) VAL={Vddval/2} RISE=1 TARG V(n30_3) VAL={Vddval/2} RISE=2\n.measure tran fosc30 param=1/tper30\n \n.measure tran tper31 TRIG V(n31_3) VAL={Vddval/2} RISE=1 TARG V(n31_3) VAL={Vddval/2} RISE=2\n.measure tran fosc31 param=1/tper31\n \n.measure tran tper32 TRIG V(n32_3) VAL={Vddval/2} RISE=1 TARG V(n32_3) VAL={Vddval/2} RISE=2\n.measure tran fosc32 param=1/tper32\n \n* ==================================================\n* Initial conditions (to start oscillation)\n* ==================================================\n.ic V(n1_1)=0 V(n1_2)=Vddval V(n1_3)=0\n.ic V(n2_1)=0 V(n2_2)=Vddval V(n2_3)=0\n.ic V(n3_1)=0 V(n3_2)=Vddval V(n3_3)=0\n.ic V(n4_1)=0 V(n4_2)=Vddval V(n4_3)=0\n.ic V(n5_1)=0 V(n5_2)=Vddval V(n5_3)=0\n.ic V(n6_1)=0 V(n6_2)=Vddval V(n6_3)=0\n.ic V(n7_1)=0 V(n7_2)=Vddval V(n7_3)=0\n.ic V(n8_1)=0 V(n8_2)=Vddval V(n8_3)=0\n.ic V(n9_1)=0 V(n9_2)=Vddval V(n9_3)=0\n.ic V(n10_1)=0 V(n10_2)=Vddval V(n10_3)=0\n.ic V(n11_1)=0 V(n11_2)=Vddval V(n11_3)=0\n.ic V(n12_1)=0 V(n12_2)=Vddval V(n12_3)=0\n.ic V(n13_1)=0 V(n13_2)=Vddval V(n13_3)=0\n.ic V(n14_1)=0 V(n14_2)=Vddval V(n14_3)=0\n.ic V(n15_1)=0 V(n15_2)=Vddval V(n15_3)=0\n.ic V(n16_1)=0 V(n16_2)=Vddval V(n16_3)=0\n.ic V(n17_1)=0 V(n17_2)=Vddval V(n17_3)=0\n.ic V(n18_1)=0 V(n18_2)=Vddval V(n18_3)=0\n.ic V(n19_1)=0 V(n19_2)=Vddval V(n19_3)=0\n.ic V(n20_1)=0 V(n20_2)=Vddval V(n20_3)=0\n.ic V(n21_1)=0 V(n21_2)=Vddval V(n21_3)=0\n.ic V(n22_1)=0 V(n22_2)=Vddval V(n22_3)=0\n.ic V(n23_1)=0 V(n23_2)=Vddval V(n23_3)=0\n.ic V(n24_1)=0 V(n24_2)=Vddval V(n24_3)=0\n.ic V(n25_1)=0 V(n25_2)=Vddval V(n25_3)=0\n.ic V(n26_1)=0 V(n26_2)=Vddval V(n26_3)=0\n.ic V(n27_1)=0 V(n27_2)=Vddval V(n27_3)=0\n.ic V(n28_1)=0 V(n28_2)=Vddval V(n28_3)=0\n.ic V(n29_1)=0 V(n29_2)=Vddval V(n29_3)=0\n.ic V(n30_1)=0 V(n30_2)=Vddval V(n30_3)=0\n.ic V(n31_1)=0 V(n31_2)=Vddval V(n31_3)=0\n.ic V(n32_1)=0 V(n32_2)=Vddval V(n32_3)=0\n \n* ==================================================\n* Transient Analysis\n* ==================================================\n.tran 0 400n\n.end
