Version 4.1
SHEET 1 1208 2500
TEXT 32 48 Left 2 !* ==================================================\n* 4 Ring Oscillators (3 inverters each) using nmos4/pmos4\n* ==================================================\n \n.param L = 0.18u\n.param AR_base = 0.5\n \n* W/L for each RO\n.param AR1 = AR_base*1\n.param AR2 = AR_base*2\n.param AR3 = AR_base*3\n.param AR4 = AR_base*4\n \n.param Wn1 = AR1*L   \n.param Wn2 = AR2*L   \n.param Wn3 = AR3*L   \n.param Wn4 = AR4*L   \n.param Wp1 = 2*Wn1\n.param Wp2 = 2*Wn2\n.param Wp3 = 2*Wn3\n.param Wp4 = 2*Wn4 \n.param Vddval=1\nVdd vdd 0 {Vddval}\nVin in 0 PULSE(0 {Vddval} 0 50p 50p 1n 2n)\n \n* -------------------\n* Ring Oscillators\n* -------------------\n* RO1\nM1n n1_1 in 0 0 nmos4 W={Wn1} L={L}\nM1p n1_1 in vdd vdd pmos4 W={Wp1} L={L}\nM2n n1_2 n1_1 0 0 nmos4 W={Wn1} L={L}\nM2p n1_2 n1_1 vdd vdd pmos4 W={Wp1} L={L}\nM3n n1_3 n1_2 0 0 nmos4 W={Wn1} L={L}\nM3p n1_3 n1_2 vdd vdd pmos4 W={Wp1} L={L}\nC1 n1_3 0 20f\n \n* RO2\nM4n n2_1 in 0 0 nmos4 W={Wn2} L={L}\nM4p n2_1 in vdd vdd pmos4 W={Wp2} L={L}\nM5n n2_2 n2_1 0 0 nmos4 W={Wn2} L={L}\nM5p n2_2 n2_1 vdd vdd pmos4 W={Wp2} L={L}\nM6n n2_3 n2_2 0 0 nmos4 W={Wn2} L={L}\nM6p n2_3 n2_2 vdd vdd pmos4 W={Wp2} L={L}\nC2 n2_3 0 20f\n \n* RO3\nM7n n3_1 in 0 0 nmos4 W={Wn3} L={L}\nM7p n3_1 in vdd vdd pmos4 W={Wp3} L={L}\nM8n n3_2 n3_1 0 0 nmos4 W={Wn3} L={L}\nM8p n3_2 n3_1 vdd vdd pmos4 W={Wp3} L={L}\nM9n n3_3 n3_2 0 0 nmos4 W={Wn3} L={L}\nM9p n3_3 n3_2 vdd vdd pmos4 W={Wp3} L={L}\nC3 n3_3 0 20f\n \n* RO4\nM10n n4_1 in 0 0 nmos4 W={Wn4} L={L}\nM10p n4_1 in vdd vdd pmos4 W={Wp4} L={L}\nM11n n4_2 n4_1 0 0 nmos4 W={Wn4} L={L}\nM11p n4_2 n4_1 vdd vdd pmos4 W={Wp4} L={L}\nM12n n4_3 n4_2 0 0 nmos4 W={Wn4} L={L}\nM12p n4_3 n4_2 vdd vdd pmos4 W={Wp4} L={L}\nC4 n4_3 0 20f\n \n.model nmos4 nmos level=1\n.model pmos4 pmos level=1\n \n* Frequency measurements\n.measure tran tper1 TRIG V(n1_3) VAL={Vddval/2} RISE=1 TARG V(n1_3) VAL={Vddval/2} RISE=2\n.measure tran fosc1 param=1/tper1\n \n.measure tran tper2 TRIG V(n2_3) VAL={Vddval/2} RISE=1 TARG V(n2_3) VAL={Vddval/2} RISE=2\n.measure tran fosc2 param=1/tper2\n \n.measure tran tper3 TRIG V(n3_3) VAL={Vddval/2} RISE=1 TARG V(n3_3) VAL={Vddval/2} RISE=2\n.measure tran fosc3 param=1/tper3\n \n.measure tran tper4 TRIG V(n4_3) VAL={Vddval/2} RISE=1 TARG V(n4_3) VAL={Vddval/2} RISE=2\n.measure tran fosc4 param=1/tper4\n \n* Initial conditions\n.ic V(n1_1)=0 V(n1_2)=Vddval V(n1_3)=0\n.ic V(n2_1)=0 V(n2_2)=Vddval V(n2_3)=0\n.ic V(n3_1)=0 V(n3_2)=Vddval V(n3_3)=0\n.ic V(n4_1)=0 V(n4_2)=Vddval V(n4_3)=0\n \n.tran 0 200n\n.end
