Version 4.1
SHEET 1 1516 6924
TEXT -72 48 Left 2 !* ==================================================\n* 8 Ring Oscillators (3 inverters each) using nmos4/pmos4\n* ==================================================\n \n* -------------------------\n* Parameters for each RO\n* -------------------------\n.param L = 0.18u\n.param AR1 = 0.5   ; W/L for RO1\n.param AR2 = 1   ; W/L for RO2\n.param AR3 = 1.5    ; W/L for RO3\n.param AR4 = 2   ; W/L for RO4\n.param AR5 = 2.5   ; W/L for RO5\n.param AR6 = 3   ; W/L for RO6\n.param AR7 = 3.5   ; W/L for RO7\n.param AR8 = 4   ; W/L for RO8\n \n.param Wn1 = AR1*L\n.param Wp1 = 2*Wn1\n.param Wn2 = AR2*L\n.param Wp2 = 2*Wn2\n.param Wn3 = AR3*L\n.param Wp3 = 2*Wn3\n.param Wn4 = AR4*L\n.param Wp4 = 2*Wn4\n.param Wn5 = AR5*L\n.param Wp5 = 2*Wn5\n.param Wn6 = AR6*L\n.param Wp6 = 2*Wn6\n.param Wn7 = AR7*L\n.param Wp7 = 2*Wn7\n.param Wn8 = AR8*L\n.param Wp8 = 2*Wn8\n \n.param Vddval = 1\n \n* -------------------------\n* Supply\n* -------------------------\nVdd vdd 0 {Vddval}\n \n* -------------------------\n* Input pulse for all ROs\n* -------------------------\nVin in 0 PULSE(0 {Vddval} 0 50p 50p 1n 2n)\n \n* ==================================================\n* Ring Oscillator 1\n* ==================================================\nM1n n1_1 in 0 0 nmos4 W={Wn1} L={L}\nM1p n1_1 in vdd vdd pmos4 W={Wp1} L={L}\nM2n n1_2 n1_1 0 0 nmos4 W={Wn1} L={L}\nM2p n1_2 n1_1 vdd vdd pmos4 W={Wp1} L={L}\nM3n n1_3 n1_2 0 0 nmos4 W={Wn1} L={L}\nM3p n1_3 n1_2 vdd vdd pmos4 W={Wp1} L={L}\nC1 n1_3 0 20f\n \n* ==================================================\n* Ring Oscillator 2\n* ==================================================\nM4n n2_1 in 0 0 nmos4 W={Wn2} L={L}\nM4p n2_1 in vdd vdd pmos4 W={Wp2} L={L}\nM5n n2_2 n2_1 0 0 nmos4 W={Wn2} L={L}\nM5p n2_2 n2_1 vdd vdd pmos4 W={Wp2} L={L}\nM6n n2_3 n2_2 0 0 nmos4 W={Wn2} L={L}\nM6p n2_3 n2_2 vdd vdd pmos4 W={Wp2} L={L}\nC2 n2_3 0 20f\n \n* ==================================================\n* Ring Oscillator 3\n* ==================================================\nM7n n3_1 in 0 0 nmos4 W={Wn3} L={L}\nM7p n3_1 in vdd vdd pmos4 W={Wp3} L={L}\nM8n n3_2 n3_1 0 0 nmos4 W={Wn3} L={L}\nM8p n3_2 n3_1 vdd vdd pmos4 W={Wp3} L={L}\nM9n n3_3 n3_2 0 0 nmos4 W={Wn3} L={L}\nM9p n3_3 n3_2 vdd vdd pmos4 W={Wp3} L={L}\nC3 n3_3 0 20f\n \n* ==================================================\n* Ring Oscillator 4\n* ==================================================\nM10n n4_1 in 0 0 nmos4 W={Wn4} L={L}\nM10p n4_1 in vdd vdd pmos4 W={Wp4} L={L}\nM11n n4_2 n4_1 0 0 nmos4 W={Wn4} L={L}\nM11p n4_2 n4_1 vdd vdd pmos4 W={Wp4} L={L}\nM12n n4_3 n4_2 0 0 nmos4 W={Wn4} L={L}\nM12p n4_3 n4_2 vdd vdd pmos4 W={Wp4} L={L}\nC4 n4_3 0 20f\n \n* ==================================================\n* Ring Oscillator 5\n* ==================================================\nM13n n5_1 in 0 0 nmos4 W={Wn5} L={L}\nM13p n5_1 in vdd vdd pmos4 W={Wp5} L={L}\nM14n n5_2 n5_1 0 0 nmos4 W={Wn5} L={L}\nM14p n5_2 n5_1 vdd vdd pmos4 W={Wp5} L={L}\nM15n n5_3 n5_2 0 0 nmos4 W={Wn5} L={L}\nM15p n5_3 n5_2 vdd vdd pmos4 W={Wp5} L={L}\nC5 n5_3 0 20f\n \n* ==================================================\n* Ring Oscillator 6\n* ==================================================\nM16n n6_1 in 0 0 nmos4 W={Wn6} L={L}\nM16p n6_1 in vdd vdd pmos4 W={Wp6} L={L}\nM17n n6_2 n6_1 0 0 nmos4 W={Wn6} L={L}\nM17p n6_2 n6_1 vdd vdd pmos4 W={Wp6} L={L}\nM18n n6_3 n6_2 0 0 nmos4 W={Wn6} L={L}\nM18p n6_3 n6_2 vdd vdd pmos4 W={Wp6} L={L}\nC6 n6_3 0 20f\n \n* ==================================================\n* Ring Oscillator 7\n* ==================================================\nM19n n7_1 in 0 0 nmos4 W={Wn7} L={L}\nM19p n7_1 in vdd vdd pmos4 W={Wp7} L={L}\nM20n n7_2 n7_1 0 0 nmos4 W={Wn7} L={L}\nM20p n7_2 n7_1 vdd vdd pmos4 W={Wp7} L={L}\nM21n n7_3 n7_2 0 0 nmos4 W={Wn7} L={L}\nM21p n7_3 n7_2 vdd vdd pmos4 W={Wp7} L={L}\nC7 n7_3 0 20f\n \n* ==================================================\n* Ring Oscillator 8\n* ==================================================\nM22n n8_1 in 0 0 nmos4 W={Wn8} L={L}\nM22p n8_1 in vdd vdd pmos4 W={Wp8} L={L}\nM23n n8_2 n8_1 0 0 nmos4 W={Wn8} L={L}\nM23p n8_2 n8_1 vdd vdd pmos4 W={Wp8} L={L}\nM24n n8_3 n8_2 0 0 nmos4 W={Wn8} L={L}\nM24p n8_3 n8_2 vdd vdd pmos4 W={Wp8} L={L}\nC8 n8_3 0 20f\n \n* ==================================================\n* MOS models\n* ==================================================\n.model nmos4 nmos level=1\n.model pmos4 pmos level=1\n \n* ==================================================\n* Period / Frequency Measurements\n* ==================================================\n* RO1\n.measure tran tper1 TRIG V(n1_3) VAL={Vddval/2} RISE=1 TARG V(n1_3) VAL={Vddval/2} RISE=2\n.measure tran fosc1 param=1/tper1\n \n* RO2\n.measure tran tper2 TRIG V(n2_3) VAL={Vddval/2} RISE=1 TARG V(n2_3) VAL={Vddval/2} RISE=2\n.measure tran fosc2 param=1/tper2\n \n* RO3\n.measure tran tper3 TRIG V(n3_3) VAL={Vddval/2} RISE=1 TARG V(n3_3) VAL={Vddval/2} RISE=2\n.measure tran fosc3 param=1/tper3\n \n* RO4\n.measure tran tper4 TRIG V(n4_3) VAL={Vddval/2} RISE=1 TARG V(n4_3) VAL={Vddval/2} RISE=2\n.measure tran fosc4 param=1/tper4\n \n* RO5\n.measure tran tper5 TRIG V(n5_3) VAL={Vddval/2} RISE=1 TARG V(n5_3) VAL={Vddval/2} RISE=2\n.measure tran fosc5 param=1/tper5\n \n* RO6\n.measure tran tper6 TRIG V(n6_3) VAL={Vddval/2} RISE=1 TARG V(n6_3) VAL={Vddval/2} RISE=2\n.measure tran fosc6 param=1/tper6\n \n* RO7\n.measure tran tper7 TRIG V(n7_3) VAL={Vddval/2} RISE=1 TARG V(n7_3) VAL={Vddval/2} RISE=2\n.measure tran fosc7 param=1/tper7\n \n* RO8\n.measure tran tper8 TRIG V(n8_3) VAL={Vddval/2} RISE=1 TARG V(n8_3) VAL={Vddval/2} RISE=2\n.measure tran fosc8 param=1/tper8\n \n \n \n* ==================================================\n* Initial conditions (to start oscillation)\n* ==================================================\n.ic V(n1_1)=0 V(n1_2)=Vddval V(n1_3)=0\n.ic V(n2_1)=0 V(n2_2)=Vddval V(n2_3)=0\n.ic V(n3_1)=0 V(n3_2)=Vddval V(n3_3)=0\n.ic V(n4_1)=0 V(n4_2)=Vddval V(n4_3)=0\n.ic V(n5_1)=0 V(n5_2)=Vddval V(n5_3)=0\n.ic V(n6_1)=0 V(n6_2)=Vddval V(n6_3)=0\n.ic V(n7_1)=0 V(n7_2)=Vddval V(n7_3)=0\n.ic V(n8_1)=0 V(n8_2)=Vddval V(n8_3)=0\n \n* ==================================================\n* Transient Analysis\n* ==================================================\n.tran 0 200n\n.end
